Version 4
SHEET 1 880 680
WIRE -496 -176 -1008 -176
WIRE -352 -176 -496 -176
WIRE -240 -176 -352 -176
WIRE -352 -160 -352 -176
WIRE -240 -160 -240 -176
WIRE -496 -96 -496 -176
WIRE -352 -48 -352 -96
WIRE -240 -48 -240 -80
WIRE -240 -48 -352 -48
WIRE -208 -48 -240 -48
WIRE -128 -48 -128 -64
WIRE -128 -48 -144 -48
WIRE -240 -32 -240 -48
WIRE 144 -32 32 -32
WIRE 240 -32 208 -32
WIRE 352 -32 240 -32
WIRE 432 -32 352 -32
WIRE 576 -32 496 -32
WIRE -352 -16 -352 -48
WIRE 576 0 576 -32
WIRE 240 16 240 -32
WIRE 352 16 352 -32
WIRE -496 32 -496 -16
WIRE -496 32 -720 32
WIRE -416 32 -496 32
WIRE 32 32 32 -32
WIRE -1008 64 -1008 -176
WIRE -720 64 -720 32
WIRE -352 96 -352 80
WIRE -240 96 -240 32
WIRE -240 96 -352 96
WIRE 240 112 240 96
WIRE 304 112 240 112
WIRE 352 112 352 80
WIRE 352 112 304 112
WIRE -352 128 -352 96
WIRE -496 144 -496 32
WIRE 32 144 32 112
WIRE 32 144 16 144
WIRE 304 144 304 112
WIRE 16 160 16 144
WIRE -1008 224 -1008 144
WIRE -720 240 -720 144
WIRE -496 240 -496 208
WIRE -496 240 -720 240
WIRE -432 240 -496 240
WIRE -352 240 -352 208
WIRE -352 240 -432 240
FLAG -432 240 0
FLAG -1008 224 0
FLAG 304 144 0
FLAG 16 160 0
FLAG -128 -64 Vo
FLAG 576 80 0
SYMBOL npn -416 -16 R0
SYMATTR InstName Q1
SYMATTR Value 2N3904
SYMBOL ind -256 -176 R0
SYMATTR InstName L1
SYMATTR Value 10µ
SYMBOL cap -368 -160 R0
SYMATTR InstName C1
SYMATTR Value 33p
SYMBOL res -368 112 R0
SYMATTR InstName R1
SYMATTR Value 220
SYMBOL cap -512 144 R0
SYMATTR InstName C3
SYMATTR Value 10n
SYMBOL res -512 -112 R0
SYMATTR InstName R2
SYMATTR Value 4.7k
SYMBOL voltage -720 48 R0
WINDOW 123 0 0 Left 0
WINDOW 39 0 0 Left 0
SYMATTR InstName V1
SYMATTR Value PULSE(0 5 0 1p 1p 0.5m 1m)
SYMBOL voltage -1008 48 R0
WINDOW 123 0 0 Left 0
WINDOW 39 0 0 Left 0
SYMATTR InstName V2
SYMATTR Value 9
SYMBOL cap -256 -32 R0
SYMATTR InstName C2
SYMATTR Value 33p
SYMBOL diode 144 -16 R270
WINDOW 0 32 32 VTop 2
WINDOW 3 0 32 VBottom 2
SYMATTR InstName D1
SYMATTR Value 1N4148
SYMBOL res 224 0 R0
SYMATTR InstName R3
SYMATTR Value 500
SYMBOL cap 336 16 R0
SYMATTR InstName C4
SYMATTR Value 10n
SYMBOL bv 32 16 R0
SYMATTR InstName B1
SYMATTR Value V=V(Vo)
SYMBOL cap 496 -48 R90
WINDOW 0 0 32 VBottom 2
WINDOW 3 32 32 VTop 2
SYMATTR InstName C5
SYMATTR Value 1µ
SYMBOL res 560 -16 R0
SYMATTR InstName R4
SYMATTR Value 1k
SYMBOL cap -144 -64 R90
WINDOW 0 0 32 VBottom 2
WINDOW 3 32 32 VTop 2
SYMATTR InstName C6
SYMATTR Value 10µ
TEXT -752 264 Left 2 !.tran 0.005
