Version 4
SHEET 1 2116 680
WIRE 896 -496 688 -496
WIRE 1008 -496 992 -496
WIRE 1040 -496 1008 -496
WIRE 1088 -496 1040 -496
WIRE 1184 -496 1168 -496
WIRE 1280 -496 1184 -496
WIRE 1008 -480 1008 -496
WIRE 688 -432 688 -496
WIRE 976 -400 976 -448
WIRE 1008 -400 1008 -416
WIRE 1008 -400 976 -400
WIRE 1040 -400 1040 -416
WIRE 1040 -400 1008 -400
WIRE 1104 -400 1104 -448
WIRE 1104 -400 1040 -400
WIRE 1040 -304 1040 -320
WIRE 688 -272 688 -352
WIRE 928 -256 800 -256
WIRE 800 -224 800 -256
WIRE 928 -224 928 -256
WIRE 944 -224 928 -224
WIRE 992 -224 944 -224
WIRE 944 -128 944 -144
WIRE 800 -112 800 -144
WIRE 1040 -80 1040 -208
WIRE 896 96 688 96
WIRE 1008 96 992 96
WIRE 1040 96 1008 96
WIRE 1088 96 1040 96
WIRE 1184 96 1168 96
WIRE 1280 96 1280 -496
WIRE 1280 96 1184 96
WIRE 1408 96 1280 96
WIRE 1008 112 1008 96
WIRE 688 160 688 96
WIRE 1280 160 1280 96
WIRE 1408 160 1408 96
WIRE 976 192 976 144
WIRE 1008 192 1008 176
WIRE 1008 192 976 192
WIRE 1040 192 1040 176
WIRE 1040 192 1008 192
WIRE 1104 192 1104 144
WIRE 1104 192 1040 192
WIRE 1280 272 1280 240
WIRE 1408 272 1408 224
WIRE 1408 272 1280 272
WIRE 1040 288 1040 272
WIRE 1280 304 1280 272
WIRE 688 320 688 240
WIRE 928 336 800 336
WIRE 800 368 800 336
WIRE 928 368 928 336
WIRE 944 368 928 368
WIRE 992 368 944 368
WIRE 944 464 944 448
WIRE 800 480 800 448
WIRE 1040 512 1040 384
FLAG 1280 304 0
FLAG 688 320 0
FLAG 944 464 0
FLAG 800 480 0
FLAG 1040 512 0
FLAG 688 -272 0
FLAG 944 -128 0
FLAG 800 -112 0
FLAG 1040 -80 0
SYMBOL pmos 896 144 R270
SYMATTR InstName M4
SYMATTR Value AO6407
SYMBOL pmos 1184 144 M270
SYMATTR InstName M5
SYMATTR Value AO6407
SYMBOL nmos 992 288 R0
SYMATTR InstName M6
SYMATTR Value Si7336ADP
SYMBOL res 1024 80 R0
SYMATTR InstName R4
SYMATTR Value 10k
SYMBOL res 960 464 R180
WINDOW 0 36 76 Left 2
WINDOW 3 36 40 Left 2
SYMATTR InstName R5
SYMATTR Value 1k
SYMBOL voltage 688 144 R0
WINDOW 123 0 0 Left 0
WINDOW 39 0 0 Left 0
SYMATTR InstName V4
SYMATTR Value 4.4
SYMBOL res 1264 144 R0
SYMATTR InstName R6
SYMATTR Value 700
SYMBOL cap 992 112 R0
SYMATTR InstName C1
SYMATTR Value 0.1µ
SYMBOL voltage 800 352 R0
WINDOW 123 0 0 Left 0
WINDOW 39 0 0 Left 0
SYMATTR InstName V3
SYMATTR Value PULSE(5 0 0 10p 10p 50m 100m)
SYMBOL res 1024 176 R0
SYMATTR InstName R7
SYMATTR Value 10
SYMBOL pmos 896 -448 R270
SYMATTR InstName M1
SYMATTR Value AO6407
SYMBOL pmos 1184 -448 M270
SYMATTR InstName M2
SYMATTR Value AO6407
SYMBOL nmos 992 -304 R0
SYMATTR InstName M3
SYMATTR Value Si7336ADP
SYMBOL res 1024 -512 R0
SYMATTR InstName R1
SYMATTR Value 10k
SYMBOL res 960 -128 R180
WINDOW 0 36 76 Left 2
WINDOW 3 36 40 Left 2
SYMATTR InstName R2
SYMATTR Value 1k
SYMBOL voltage 688 -448 R0
WINDOW 123 0 0 Left 0
WINDOW 39 0 0 Left 0
SYMATTR InstName V1
SYMATTR Value 4.2
SYMBOL cap 992 -480 R0
SYMATTR InstName C2
SYMATTR Value 0.1µ
SYMBOL voltage 800 -240 R0
WINDOW 123 0 0 Left 0
WINDOW 39 0 0 Left 0
SYMATTR InstName V2
SYMATTR Value PULSE(0 5 0 10p 10p 50m 100m)
SYMBOL res 1024 -416 R0
SYMATTR InstName R8
SYMATTR Value 10
SYMBOL cap 1392 160 R0
SYMATTR InstName C3
SYMATTR Value 10µ
TEXT 656 536 Left 2 !.tran 0.1
