Version 4
SHEET 1 2116 680
WIRE 864 -480 656 -480
WIRE 976 -480 960 -480
WIRE 1008 -480 976 -480
WIRE 1056 -480 1008 -480
WIRE 1152 -480 1136 -480
WIRE 1248 -480 1152 -480
WIRE 976 -464 976 -480
WIRE 64 -448 -144 -448
WIRE 176 -448 160 -448
WIRE 208 -448 176 -448
WIRE 256 -448 208 -448
WIRE 352 -448 336 -448
WIRE 448 -448 352 -448
WIRE 176 -432 176 -448
WIRE 656 -416 656 -480
WIRE 1248 -416 1248 -480
WIRE -144 -384 -144 -448
WIRE 448 -384 448 -448
WIRE 944 -384 944 -432
WIRE 976 -384 976 -400
WIRE 976 -384 944 -384
WIRE 1008 -384 1008 -400
WIRE 1008 -384 976 -384
WIRE 1072 -384 1072 -432
WIRE 1072 -384 1008 -384
WIRE 144 -352 144 -400
WIRE 176 -352 176 -368
WIRE 176 -352 144 -352
WIRE 208 -352 208 -368
WIRE 208 -352 176 -352
WIRE 272 -352 272 -400
WIRE 272 -352 208 -352
WIRE 1008 -288 1008 -384
WIRE 1248 -272 1248 -336
WIRE 208 -256 208 -272
WIRE 656 -256 656 -336
WIRE 448 -240 448 -304
WIRE 896 -240 768 -240
WIRE -144 -224 -144 -304
WIRE 96 -208 -32 -208
WIRE 768 -208 768 -240
WIRE 896 -208 896 -240
WIRE 912 -208 896 -208
WIRE 960 -208 912 -208
WIRE -32 -176 -32 -208
WIRE 96 -176 96 -208
WIRE 112 -176 96 -176
WIRE 160 -176 112 -176
WIRE 912 -112 912 -128
WIRE 768 -96 768 -128
WIRE 112 -80 112 -96
WIRE -32 -64 -32 -96
WIRE 1008 -64 1008 -192
WIRE 208 -32 208 -160
WIRE 896 96 688 96
WIRE 1008 96 992 96
WIRE 1040 96 1008 96
WIRE 1088 96 1040 96
WIRE 1184 96 1168 96
WIRE 1280 96 1184 96
WIRE 32 112 -176 112
WIRE 176 112 128 112
WIRE 224 112 176 112
WIRE 320 112 304 112
WIRE 416 112 320 112
WIRE 1008 112 1008 96
WIRE 688 160 688 96
WIRE 1280 160 1280 96
WIRE -176 176 -176 112
WIRE 416 176 416 112
WIRE 976 192 976 144
WIRE 1008 192 1008 176
WIRE 1008 192 976 192
WIRE 1040 192 1040 176
WIRE 1040 192 1008 192
WIRE 1104 192 1104 144
WIRE 1104 192 1040 192
WIRE 112 208 112 160
WIRE 176 208 176 192
WIRE 176 208 112 208
WIRE 240 208 240 160
WIRE 240 208 176 208
WIRE 1040 288 1040 272
WIRE 176 304 176 208
WIRE 1280 304 1280 240
WIRE 416 320 416 256
WIRE 688 320 688 240
WIRE -176 336 -176 256
WIRE 928 336 800 336
WIRE 64 352 -64 352
WIRE 800 368 800 336
WIRE 928 368 928 336
WIRE 944 368 928 368
WIRE 992 368 944 368
WIRE -64 384 -64 352
WIRE 64 384 64 352
WIRE 80 384 64 384
WIRE 128 384 80 384
WIRE 176 432 176 400
WIRE 944 464 944 448
WIRE 80 480 80 464
WIRE 800 480 800 448
WIRE -64 496 -64 464
WIRE 1040 512 1040 384
FLAG 176 432 0
FLAG 416 320 0
FLAG -176 336 0
FLAG 80 480 0
FLAG -64 496 0
FLAG 1280 304 0
FLAG 688 320 0
FLAG 944 464 0
FLAG 800 480 0
FLAG 1040 512 0
FLAG 1248 -272 0
FLAG 656 -256 0
FLAG 912 -112 0
FLAG 768 -96 0
FLAG 1008 -64 0
FLAG 448 -240 0
FLAG -144 -224 0
FLAG 112 -80 0
FLAG -32 -64 0
FLAG 208 -32 0
SYMBOL pmos 32 160 R270
SYMATTR InstName M1
SYMATTR Value AO6407
SYMBOL pmos 320 160 M270
SYMATTR InstName M2
SYMATTR Value AO6407
SYMBOL nmos 128 304 R0
SYMATTR InstName M3
SYMATTR Value Si7336ADP
SYMBOL res 160 96 R0
SYMATTR InstName R1
SYMATTR Value 10k
SYMBOL res 96 480 R180
WINDOW 0 36 76 Left 2
WINDOW 3 36 40 Left 2
SYMATTR InstName R2
SYMATTR Value 1k
SYMBOL voltage -176 160 R0
WINDOW 123 0 0 Left 0
WINDOW 39 0 0 Left 0
SYMATTR InstName V2
SYMATTR Value 7
SYMBOL res 400 160 R0
SYMATTR InstName R3
SYMATTR Value 7
SYMBOL pmos 896 144 R270
SYMATTR InstName M4
SYMATTR Value AO6407
SYMBOL pmos 1184 144 M270
SYMATTR InstName M5
SYMATTR Value AO6407
SYMBOL nmos 992 288 R0
SYMATTR InstName M6
SYMATTR Value Si7336ADP
SYMBOL res 1024 80 R0
SYMATTR InstName R4
SYMATTR Value 10k
SYMBOL res 960 464 R180
WINDOW 0 36 76 Left 2
WINDOW 3 36 40 Left 2
SYMATTR InstName R5
SYMATTR Value 1k
SYMBOL voltage 688 144 R0
WINDOW 123 0 0 Left 0
WINDOW 39 0 0 Left 0
SYMATTR InstName V4
SYMATTR Value 7
SYMBOL res 1264 144 R0
SYMATTR InstName R6
SYMATTR Value 7
SYMBOL cap 992 112 R0
SYMATTR InstName C1
SYMATTR Value 0.1µ
SYMBOL voltage 800 352 R0
WINDOW 123 0 0 Left 0
WINDOW 39 0 0 Left 0
SYMATTR InstName V3
SYMATTR Value PULSE(0 5 50m 10p 10p 50m 100m)
SYMBOL voltage -64 368 R0
WINDOW 123 0 0 Left 0
WINDOW 39 0 0 Left 0
SYMATTR InstName V1
SYMATTR Value PULSE(0 5 50m 10p 10p 50m 100m)
SYMBOL res 1024 176 R0
SYMATTR InstName R7
SYMATTR Value 10
SYMBOL pmos 864 -432 R270
SYMATTR InstName M7
SYMATTR Value AO6407
SYMBOL pmos 1152 -432 M270
SYMATTR InstName M8
SYMATTR Value AO6407
SYMBOL nmos 960 -288 R0
SYMATTR InstName M9
SYMATTR Value Si7336ADP
SYMBOL res 992 -496 R0
SYMATTR InstName R8
SYMATTR Value 10k
SYMBOL res 928 -112 R180
WINDOW 0 36 76 Left 2
WINDOW 3 36 40 Left 2
SYMATTR InstName R9
SYMATTR Value 1k
SYMBOL voltage 656 -432 R0
WINDOW 123 0 0 Left 0
WINDOW 39 0 0 Left 0
SYMATTR InstName V5
SYMATTR Value 7
SYMBOL res 1232 -432 R0
SYMATTR InstName R10
SYMATTR Value 7
SYMBOL cap 960 -464 R0
SYMATTR InstName C2
SYMATTR Value 0.1µ
SYMBOL voltage 768 -224 R0
WINDOW 123 0 0 Left 0
WINDOW 39 0 0 Left 0
SYMATTR InstName V6
SYMATTR Value PULSE(0 5 50m 10p 10p 50m 100m)
SYMBOL pmos 64 -400 R270
SYMATTR InstName M10
SYMATTR Value AO6407
SYMBOL pmos 352 -400 M270
SYMATTR InstName M11
SYMATTR Value AO6407
SYMBOL nmos 160 -256 R0
SYMATTR InstName M12
SYMATTR Value Si7336ADP
SYMBOL res 192 -464 R0
SYMATTR InstName R11
SYMATTR Value 10k
SYMBOL res 128 -80 R180
WINDOW 0 36 76 Left 2
WINDOW 3 36 40 Left 2
SYMATTR InstName R12
SYMATTR Value 1k
SYMBOL voltage -144 -400 R0
WINDOW 123 0 0 Left 0
WINDOW 39 0 0 Left 0
SYMATTR InstName V7
SYMATTR Value 7
SYMBOL res 432 -400 R0
SYMATTR InstName R13
SYMATTR Value 7
SYMBOL voltage -32 -192 R0
WINDOW 123 0 0 Left 0
WINDOW 39 0 0 Left 0
SYMATTR InstName V8
SYMATTR Value PULSE(0 5 50m 10p 10p 50m 100m)
SYMBOL res 192 -368 R0
SYMATTR InstName R14
SYMATTR Value 10
TEXT -208 520 Left 2 !.tran 0.1
