Version 4
SHEET 1 1848 680
WIRE 1504 -64 1024 -64
WIRE 528 -16 496 -16
WIRE 608 -16 528 -16
WIRE 720 -16 672 -16
WIRE 1024 -16 1024 -64
WIRE 496 48 496 -16
WIRE 720 48 720 -16
WIRE 1024 112 1024 64
WIRE -192 128 -272 128
WIRE -96 128 -192 128
WIRE 304 128 112 128
WIRE 352 128 304 128
WIRE 496 128 432 128
WIRE 560 128 496 128
WIRE 720 128 640 128
WIRE 816 128 720 128
WIRE 896 128 816 128
WIRE -272 144 -272 128
WIRE -96 160 -160 160
WIRE 144 160 112 160
WIRE 720 160 720 128
WIRE 816 160 816 128
WIRE 304 176 304 128
WIRE 496 176 496 128
WIRE -160 192 -160 160
WIRE -96 192 -160 192
WIRE 1504 192 1504 -64
WIRE 1504 192 1056 192
WIRE 816 240 816 224
WIRE 896 240 896 208
WIRE 896 240 816 240
WIRE 976 240 896 240
WIRE 1056 240 1056 192
WIRE -272 256 -272 224
WIRE -160 256 -160 192
WIRE -160 256 -272 256
WIRE 896 256 896 240
WIRE 496 272 496 240
WIRE 608 272 496 272
WIRE 720 272 720 240
WIRE 720 272 608 272
WIRE 1104 272 1104 240
WIRE -160 288 -160 256
WIRE 304 304 304 240
WIRE 608 304 608 272
WIRE 144 352 144 160
WIRE 816 352 816 240
WIRE 816 352 144 352
WIRE 896 400 896 336
WIRE 1104 400 1104 352
FLAG 608 304 0
FLAG 304 304 0
FLAG -160 288 0
FLAG 896 400 0
FLAG 720 -16 R5L
FLAG 1104 400 0
FLAG -192 128 vcc
FLAG 1024 112 0
FLAG 528 -16 R5H
DATAFLAG 1120 -64 ""
SYMBOL Regulators\\LM2596_ADJ 0 160 R0
SYMATTR InstName U1
SYMBOL ind 448 112 R90
WINDOW 0 5 56 VBottom 2
WINDOW 3 32 56 VTop 2
SYMATTR InstName L1
SYMATTR Value 100µ
SYMBOL schottky 320 240 R180
WINDOW 0 24 64 Left 2
WINDOW 3 24 0 Left 2
SYMATTR InstName D1
SYMATTR Value 1N5817
SYMATTR Description Diode
SYMATTR Type diode
SYMBOL cap 480 176 R0
SYMATTR InstName C1
SYMATTR Value 200µ
SYMBOL res 704 144 R0
SYMATTR InstName R1
SYMATTR Value 4
SYMBOL voltage -272 128 R0
WINDOW 123 0 0 Left 0
WINDOW 39 0 0 Left 0
SYMATTR InstName V1
SYMATTR Value 10
SYMBOL res 880 112 R0
SYMATTR InstName R2
SYMATTR Value 1.440k
SYMBOL res 880 240 R0
SYMATTR InstName R3
SYMATTR Value 750
SYMBOL res 1072 224 R90
WINDOW 0 0 56 VBottom 2
WINDOW 3 32 56 VTop 2
SYMATTR InstName R4
SYMATTR Value 3k
SYMBOL cap 800 160 R0
SYMATTR InstName C2
SYMATTR Value 10n
SYMBOL res 544 144 R270
WINDOW 0 32 56 VTop 2
WINDOW 3 0 56 VBottom 2
SYMATTR InstName R5
SYMATTR Value 0.5
SYMBOL res 480 32 R0
SYMATTR InstName R6
SYMATTR Value 10
SYMBOL res 704 32 R0
SYMATTR InstName R7
SYMATTR Value 10
SYMBOL cap 672 -32 R90
WINDOW 0 0 32 VBottom 2
WINDOW 3 32 32 VTop 2
SYMATTR InstName C3
SYMATTR Value 4.7µ
SYMBOL voltage 1104 256 R0
WINDOW 123 0 0 Left 0
WINDOW 39 0 0 Left 0
SYMATTR InstName V2
SYMATTR Value PULSE(0 5 5m 250u 1p 5m 10m 1)
SYMBOL bv 1024 -32 R0
SYMATTR InstName B1
SYMATTR Value V= 10*(  -0.5 + (V(R5H)-V(R5L)) )
TEXT -304 424 Left 2 !.tran 0.01
