Version 4
SHEET 1 1848 680
WIRE 880 -416 864 -416
WIRE 1024 -416 960 -416
WIRE 928 -224 928 -272
WIRE 752 -208 672 -208
WIRE 864 -208 864 -416
WIRE 864 -208 832 -208
WIRE 896 -208 864 -208
WIRE 1024 -192 1024 -416
WIRE 1024 -192 960 -192
WIRE 896 -176 864 -176
WIRE 752 -112 480 -112
WIRE 864 -112 864 -176
WIRE 864 -112 832 -112
WIRE 864 -80 864 -112
WIRE 480 -32 480 -112
WIRE 544 -32 480 -32
WIRE 672 -32 672 -208
WIRE 672 -32 608 -32
WIRE 480 16 480 -32
WIRE 672 16 672 -32
WIRE 864 32 864 0
WIRE -192 128 -272 128
WIRE -96 128 -192 128
WIRE 304 128 112 128
WIRE 352 128 304 128
WIRE 480 128 480 96
WIRE 480 128 432 128
WIRE 560 128 480 128
WIRE 672 128 672 96
WIRE 672 128 640 128
WIRE 720 128 672 128
WIRE 816 128 720 128
WIRE 896 128 816 128
WIRE 1008 128 896 128
WIRE 1120 128 1088 128
WIRE 1248 128 1200 128
WIRE -272 144 -272 128
WIRE 1008 144 1008 128
WIRE -96 160 -160 160
WIRE 144 160 112 160
WIRE 544 160 480 160
WIRE 720 160 720 128
WIRE 816 160 816 128
WIRE 304 176 304 128
WIRE 480 176 480 160
WIRE -160 192 -160 160
WIRE -96 192 -160 192
WIRE 544 192 544 160
WIRE 672 192 672 128
WIRE 672 192 544 192
WIRE 816 240 816 224
WIRE 896 240 896 208
WIRE 896 240 816 240
WIRE 1008 240 1008 224
WIRE 1008 240 896 240
WIRE 1088 240 1088 128
WIRE 1088 240 1008 240
WIRE 1120 240 1088 240
WIRE 1248 240 1248 128
WIRE 1248 240 1200 240
WIRE -272 256 -272 224
WIRE -160 256 -160 192
WIRE -160 256 -272 256
WIRE 896 256 896 240
WIRE 480 272 480 240
WIRE 608 272 480 272
WIRE 720 272 720 240
WIRE 720 272 608 272
WIRE 1248 272 1248 240
WIRE -160 288 -160 256
WIRE -272 304 -272 256
WIRE 304 304 304 240
WIRE 608 304 608 272
WIRE 144 352 144 160
WIRE 816 352 816 240
WIRE 816 352 144 352
WIRE 896 400 896 336
WIRE 1248 400 1248 352
FLAG 608 304 0
FLAG 304 304 0
FLAG -160 288 0
FLAG 896 400 0
FLAG 1248 400 0
FLAG -192 128 vcc
FLAG 928 -272 vcc
FLAG -272 384 -v
FLAG 928 -160 -v
FLAG 864 32 0
SYMBOL Regulators\\LM2596_ADJ 0 160 R0
SYMATTR InstName U1
SYMBOL ind 448 112 R90
WINDOW 0 5 56 VBottom 2
WINDOW 3 32 56 VTop 2
SYMATTR InstName L1
SYMATTR Value 68µ
SYMBOL schottky 320 240 R180
WINDOW 0 24 64 Left 2
WINDOW 3 24 0 Left 2
SYMATTR InstName D1
SYMATTR Value 1N5817
SYMATTR Description Diode
SYMATTR Type diode
SYMBOL res 704 144 R0
SYMATTR InstName R1
SYMATTR Value 8
SYMBOL voltage -272 128 R0
WINDOW 123 0 0 Left 0
WINDOW 39 0 0 Left 0
SYMATTR InstName V1
SYMATTR Value 5
SYMBOL res 880 112 R0
SYMATTR InstName R2
SYMATTR Value 15k
SYMBOL res 880 240 R0
SYMATTR InstName R3
SYMATTR Value 750
SYMBOL res 1216 224 R90
WINDOW 0 0 56 VBottom 2
WINDOW 3 32 56 VTop 2
SYMATTR InstName R4
SYMATTR Value 3.3k
SYMBOL cap 800 160 R0
SYMATTR InstName C2
SYMATTR Value 33n
SYMBOL res 544 144 R270
WINDOW 0 32 56 VTop 2
WINDOW 3 0 56 VBottom 2
SYMATTR InstName R5
SYMATTR Value 0.25
SYMBOL voltage 1248 256 R0
WINDOW 123 0 0 Left 0
WINDOW 39 0 0 Left 0
SYMATTR InstName V2
SYMATTR Value PULSE(0 2.5 10m 10n 10n 10m 20m)
SYMBOL res 992 128 R0
SYMATTR InstName R6
SYMATTR Value 2k
SYMBOL res 1216 112 R90
WINDOW 0 0 56 VBottom 2
WINDOW 3 32 56 VTop 2
SYMATTR InstName R7
SYMATTR Value 20k
SYMBOL cap 464 176 R0
SYMATTR InstName C1
SYMATTR Value 470µ
SYMBOL res 464 0 R0
SYMATTR InstName R8
SYMATTR Value 10
SYMBOL res 656 0 R0
SYMATTR InstName R9
SYMATTR Value 10
SYMBOL cap 608 -48 R90
WINDOW 0 0 32 VBottom 2
WINDOW 3 32 32 VTop 2
SYMATTR InstName C3
SYMATTR Value 1µ
SYMBOL OpAmps\\TL081 928 -256 R0
SYMATTR InstName U2
SYMBOL voltage -272 288 R0
WINDOW 123 0 0 Left 0
WINDOW 39 0 0 Left 0
SYMATTR InstName V3
SYMATTR Value 7
SYMBOL res 848 -224 R90
WINDOW 0 0 56 VBottom 2
WINDOW 3 32 56 VTop 2
SYMATTR InstName R10
SYMATTR Value 1k
SYMBOL res 976 -432 R90
WINDOW 0 0 56 VBottom 2
WINDOW 3 32 56 VTop 2
SYMATTR InstName R11
SYMATTR Value 20k
SYMBOL res 848 -128 R90
WINDOW 0 0 56 VBottom 2
WINDOW 3 32 56 VTop 2
SYMATTR InstName R12
SYMATTR Value 1k
SYMBOL res 880 16 R180
WINDOW 0 36 76 Left 2
WINDOW 3 36 40 Left 2
SYMATTR InstName R13
SYMATTR Value 20k
TEXT -304 424 Left 2 !.tran 0.02
