Version 4
SHEET 1 880 680
WIRE 368 -112 -464 -112
WIRE 192 -48 128 -48
WIRE 272 -48 192 -48
WIRE 272 -16 272 -48
WIRE 128 0 128 -48
WIRE 272 80 272 64
WIRE 368 80 368 -112
WIRE 368 80 272 80
WIRE 272 96 272 80
WIRE 512 112 512 80
WIRE -464 144 -464 -112
WIRE -416 144 -464 144
WIRE -336 144 -352 144
WIRE -288 144 -336 144
WIRE -208 144 -224 144
WIRE -144 144 -208 144
WIRE -64 144 -80 144
WIRE 0 144 -64 144
WIRE 128 144 128 80
WIRE 128 144 64 144
WIRE 208 144 128 144
WIRE -336 192 -336 144
WIRE -208 192 -208 144
WIRE -64 192 -64 144
WIRE 128 208 128 144
WIRE 272 208 272 192
WIRE 512 272 512 192
WIRE -336 304 -336 272
WIRE -208 304 -208 272
WIRE -64 304 -64 272
WIRE 128 304 128 288
WIRE 272 304 272 288
FLAG 512 272 0
FLAG 512 80 12v
FLAG 192 -48 12v
FLAG 272 304 0
FLAG 128 304 0
FLAG -64 304 0
FLAG -208 304 0
FLAG -336 304 0
SYMBOL npn 208 96 R0
SYMATTR InstName Q1
SYMATTR Value 2N2222
SYMBOL res 256 192 R0
SYMATTR InstName R1
SYMATTR Value 100
SYMBOL res 256 -32 R0
SYMATTR InstName R2
SYMATTR Value 2.9k
SYMBOL voltage 512 96 R0
WINDOW 123 0 0 Left 0
WINDOW 39 0 0 Left 0
SYMATTR InstName V1
SYMATTR Value 12
SYMBOL res 112 -16 R0
SYMATTR InstName R3
SYMATTR Value 12.33k
SYMBOL res 112 192 R0
SYMATTR InstName R4
SYMATTR Value 1k
SYMBOL cap 64 128 R90
WINDOW 0 0 32 VBottom 2
WINDOW 3 32 32 VTop 2
SYMATTR InstName C1
SYMATTR Value 10µ
SYMBOL res -80 176 R0
SYMATTR InstName R5
SYMATTR Value 1k
SYMBOL cap -80 128 R90
WINDOW 0 0 32 VBottom 2
WINDOW 3 32 32 VTop 2
SYMATTR InstName C2
SYMATTR Value 649.7p
SYMBOL res -224 176 R0
SYMATTR InstName R6
SYMATTR Value 1k
SYMBOL cap -224 128 R90
WINDOW 0 0 32 VBottom 2
WINDOW 3 32 32 VTop 2
SYMATTR InstName C3
SYMATTR Value 649.7p
SYMBOL res -352 176 R0
SYMATTR InstName R7
SYMATTR Value 1k
SYMBOL cap -352 128 R90
WINDOW 0 0 32 VBottom 2
WINDOW 3 32 32 VTop 2
SYMATTR InstName C4
SYMATTR Value 649.7p
TEXT 158 440 Left 2 !.tran 0.1
