Version 4
SHEET 1 880 680
WIRE -288 -64 -704 -64
WIRE -48 -64 -288 -64
WIRE -48 -16 -48 -64
WIRE -288 0 -288 -64
WIRE -112 32 -160 32
WIRE -480 64 -528 64
WIRE -368 64 -400 64
WIRE -704 80 -704 -64
WIRE -288 112 -288 80
WIRE -160 112 -160 32
WIRE -160 112 -288 112
WIRE -48 112 -48 80
WIRE 128 112 -48 112
WIRE 240 112 192 112
WIRE 288 112 240 112
WIRE 400 112 352 112
WIRE 512 112 400 112
WIRE -528 128 -528 64
WIRE -48 128 -48 112
WIRE 512 128 512 112
WIRE -288 144 -288 112
WIRE 240 144 240 112
WIRE 400 144 400 112
WIRE -160 176 -160 112
WIRE -112 176 -160 176
WIRE -368 192 -368 64
WIRE -352 192 -368 192
WIRE -336 192 -352 192
WIRE -704 208 -704 160
WIRE 400 224 400 208
WIRE 512 224 512 208
WIRE 512 224 400 224
WIRE -528 240 -528 208
WIRE 400 240 400 224
WIRE 240 272 240 208
WIRE -288 288 -288 240
WIRE -176 288 -288 288
WIRE -48 288 -48 224
WIRE -48 288 -176 288
WIRE -176 320 -176 288
WIRE 240 384 240 352
FLAG 400 240 0
FLAG -528 240 0
FLAG -176 320 0
FLAG -704 208 0
FLAG 240 384 0
SYMBOL cap 192 96 R90
WINDOW 0 0 32 VBottom 2
WINDOW 3 32 32 VTop 2
SYMATTR InstName C1
SYMATTR Value 1µ
SYMBOL schottky 224 144 R0
SYMATTR InstName D1
SYMATTR Value 1N5817
SYMATTR Description Diode
SYMATTR Type diode
SYMBOL schottky 352 96 R90
WINDOW 0 0 32 VBottom 2
WINDOW 3 32 32 VTop 2
SYMATTR InstName D2
SYMATTR Value 1N5817
SYMATTR Description Diode
SYMATTR Type diode
SYMBOL cap 384 144 R0
SYMATTR InstName C2
SYMATTR Value 1µ
SYMBOL voltage -528 112 R0
WINDOW 3 -149 161 Left 2
WINDOW 123 0 0 Left 0
WINDOW 39 0 0 Left 0
SYMATTR Value PULSE(5 0 0 10n 10n 5u 10u)
SYMATTR InstName V1
SYMBOL npn -352 144 R0
SYMATTR InstName Q1
SYMATTR Value 2N2222
SYMBOL res -304 -16 R0
SYMATTR InstName R1
SYMATTR Value 1k
SYMBOL res -496 80 R270
WINDOW 0 32 56 VTop 2
WINDOW 3 0 56 VBottom 2
SYMATTR InstName R3
SYMATTR Value 1k
SYMBOL npn -112 -16 R0
SYMATTR InstName Q2
SYMATTR Value 2N2222
SYMBOL pnp -112 224 M180
SYMATTR InstName Q3
SYMATTR Value 2N3906
SYMBOL voltage -704 64 R0
WINDOW 123 0 0 Left 0
WINDOW 39 0 0 Left 0
SYMATTR InstName V2
SYMATTR Value 7
SYMBOL voltage 240 256 R0
WINDOW 123 0 0 Left 0
WINDOW 39 0 0 Left 0
SYMATTR InstName V3
SYMATTR Value 1
TEXT -672 296 Left 2 !.tran 0.02
