Version 4
SHEET 1 880 788
WIRE 640 -112 -544 -112
WIRE 192 -48 128 -48
WIRE 272 -48 192 -48
WIRE 544 -48 272 -48
WIRE 272 -16 272 -48
WIRE 640 -16 640 -112
WIRE 128 0 128 -48
WIRE 544 0 544 -48
WIRE 272 96 272 64
WIRE 544 112 544 80
WIRE 640 112 640 -16
WIRE 640 112 544 112
WIRE 544 128 544 112
WIRE 752 128 752 96
WIRE -416 144 -544 144
WIRE -336 144 -352 144
WIRE -288 144 -336 144
WIRE -208 144 -224 144
WIRE -144 144 -208 144
WIRE -64 144 -80 144
WIRE 0 144 -64 144
WIRE 128 144 128 80
WIRE 128 144 64 144
WIRE 208 144 128 144
WIRE -704 176 -704 144
WIRE 416 176 416 80
WIRE 480 176 416 176
WIRE -544 192 -544 144
WIRE -336 192 -336 144
WIRE -208 192 -208 144
WIRE -64 192 -64 144
WIRE 128 208 128 144
WIRE 272 208 272 192
WIRE 752 288 752 208
WIRE -704 304 -704 256
WIRE -544 304 -544 272
WIRE -336 304 -336 272
WIRE -208 304 -208 272
WIRE -64 304 -64 272
WIRE 128 304 128 288
WIRE 272 304 272 288
WIRE 544 304 544 224
FLAG 752 288 0
FLAG 752 96 12v
FLAG 192 -48 12v
FLAG 272 304 0
FLAG 128 304 0
FLAG -64 304 0
FLAG -208 304 0
FLAG -336 304 0
FLAG -544 304 0
FLAG 640 -16 Vos
FLAG -704 304 0
FLAG 544 304 0
SYMBOL npn 208 96 R0
SYMATTR InstName Q1
SYMATTR Value 2N2222
SYMBOL res 256 192 R0
SYMATTR InstName R1
SYMATTR Value 80
SYMBOL res 256 -32 R0
SYMATTR InstName R2
SYMATTR Value 4.1k
SYMBOL voltage 752 112 R0
WINDOW 123 0 0 Left 0
WINDOW 39 0 0 Left 0
SYMATTR InstName V1
SYMATTR Value 12
SYMBOL res 112 -16 R0
SYMATTR InstName R3
SYMATTR Value 12.33k
SYMBOL res 112 192 R0
SYMATTR InstName R4
SYMATTR Value 1k
SYMBOL cap 64 128 R90
WINDOW 0 0 32 VBottom 2
WINDOW 3 32 32 VTop 2
SYMATTR InstName C1
SYMATTR Value 100µ
SYMBOL res -80 176 R0
SYMATTR InstName R5
SYMATTR Value 1k
SYMBOL cap -80 128 R90
WINDOW 0 0 32 VBottom 2
WINDOW 3 32 32 VTop 2
SYMATTR InstName C2
SYMATTR Value 1.3n
SYMBOL res -224 176 R0
SYMATTR InstName R6
SYMATTR Value 500
SYMBOL cap -224 128 R90
WINDOW 0 0 32 VBottom 2
WINDOW 3 32 32 VTop 2
SYMATTR InstName C3
SYMATTR Value 1.3n
SYMBOL res -352 176 R0
SYMATTR InstName R7
SYMATTR Value 500
SYMBOL cap -352 128 R90
WINDOW 0 0 32 VBottom 2
WINDOW 3 32 32 VTop 2
SYMATTR InstName C4
SYMATTR Value 1.3n
SYMBOL voltage -544 176 R0
WINDOW 123 0 0 Left 0
WINDOW 39 0 0 Left 0
SYMATTR InstName V2
SYMATTR Value SINE(0 0.29 100k)
SYMBOL bv -704 160 R0
SYMATTR InstName B1
SYMATTR Value V=V(Vos)
SYMBOL pnp 480 224 M180
SYMATTR InstName Q2
SYMATTR Value 2N2907
SYMBOL res 528 -16 R0
SYMATTR InstName R8
SYMATTR Value 1k
TEXT 158 440 Left 2 !.tran 10m
