Version 4
SHEET 1 880 680
WIRE 144 16 96 16
WIRE 320 16 224 16
WIRE 176 128 176 96
WIRE 624 128 624 80
WIRE -16 144 -160 144
WIRE 96 144 96 16
WIRE 96 144 64 144
WIRE 144 144 96 144
WIRE 336 144 304 144
WIRE 400 144 400 128
WIRE -416 160 -416 128
WIRE -288 160 -288 128
WIRE 320 160 320 16
WIRE 320 160 208 160
WIRE 336 160 336 144
WIRE 368 160 336 160
WIRE 144 176 112 176
WIRE 464 176 432 176
WIRE 560 176 544 176
WIRE 320 192 320 160
WIRE 368 192 320 192
WIRE -16 224 -48 224
WIRE 112 224 112 176
WIRE 112 224 64 224
WIRE 304 240 304 144
WIRE 624 240 624 224
WIRE 624 240 480 240
WIRE 112 256 112 224
WIRE 400 256 400 208
WIRE 624 256 624 240
WIRE -416 288 -416 240
WIRE -288 288 -288 240
WIRE -240 320 -336 320
WIRE 480 336 480 240
WIRE 480 336 336 336
WIRE -336 352 -336 320
WIRE 112 368 112 336
WIRE 304 368 304 320
WIRE 624 368 624 336
WIRE 624 368 368 368
WIRE -240 400 -240 320
WIRE 176 400 176 192
WIRE 176 400 -240 400
WIRE 624 400 624 368
WIRE -48 416 -48 224
WIRE 336 416 336 336
WIRE 336 416 -48 416
WIRE -160 432 -160 144
WIRE 368 432 368 368
WIRE 368 432 -160 432
WIRE -336 464 -336 432
WIRE 624 496 624 464
FLAG 112 368 0
FLAG -288 288 0
FLAG -288 128 vcc
FLAG 176 96 vcc2
FLAG 624 80 vcc
FLAG 400 128 vcc2
FLAG 400 256 0
FLAG 304 368 0
FLAG 624 496 0
FLAG -416 288 0
FLAG -416 128 vcc2
FLAG -336 464 0
SYMBOL OpAmps\\TL081 176 96 R0
SYMATTR InstName U1
SYMBOL res 240 0 R90
WINDOW 0 0 56 VBottom 2
WINDOW 3 32 56 VTop 2
SYMATTR InstName R1
SYMATTR Value 10k
SYMBOL res 80 128 R90
WINDOW 0 0 56 VBottom 2
WINDOW 3 32 56 VTop 2
SYMATTR InstName R2
SYMATTR Value 1k
SYMBOL res 128 352 R180
WINDOW 0 36 76 Left 2
WINDOW 3 36 40 Left 2
SYMATTR InstName R3
SYMATTR Value 10k
SYMBOL res -32 240 R270
WINDOW 0 32 56 VTop 2
WINDOW 3 0 56 VBottom 2
SYMATTR InstName R4
SYMATTR Value 1k
SYMBOL pnp 560 224 M180
SYMATTR InstName Q1
SYMATTR Value 2N3906
SYMBOL voltage -288 144 R0
WINDOW 123 0 0 Left 0
WINDOW 39 0 0 Left 0
SYMATTR InstName V1
SYMATTR Value 6
SYMBOL OpAmps\\TL081 400 112 R0
SYMATTR InstName U2
SYMBOL voltage 304 224 R0
WINDOW 123 0 0 Left 0
WINDOW 39 0 0 Left 0
SYMATTR InstName V2
SYMATTR Value 2.5
SYMBOL res 608 240 R0
SYMATTR InstName R5
SYMATTR Value 0.5
SYMBOL res 560 160 R90
WINDOW 0 0 56 VBottom 2
WINDOW 3 32 56 VTop 2
SYMATTR InstName R6
SYMATTR Value 470
SYMBOL voltage -416 144 R0
WINDOW 123 0 0 Left 0
WINDOW 39 0 0 Left 0
SYMATTR InstName V3
SYMATTR Value 6
SYMBOL voltage -336 336 R0
WINDOW 123 0 0 Left 0
WINDOW 39 0 0 Left 0
SYMATTR InstName V4
SYMATTR Value 0
SYMBOL cap 608 400 R0
SYMATTR InstName C1
SYMATTR Value 100m
TEXT -322 520 Left 2 !.tran 0.5 startup
