Version 4
SHEET 1 880 680
WIRE 176 16 176 -32
WIRE 176 16 -112 16
WIRE 432 16 176 16
WIRE 432 80 432 16
WIRE 176 96 176 16
WIRE 672 96 640 96
WIRE 800 96 752 96
WIRE -112 112 -112 16
WIRE 144 112 16 112
WIRE 256 128 208 128
WIRE 368 128 336 128
WIRE 144 144 112 144
WIRE 432 192 432 176
WIRE 528 192 432 192
WIRE 640 192 640 96
WIRE 640 192 608 192
WIRE 176 208 176 160
WIRE 640 224 640 192
WIRE 672 224 640 224
WIRE -112 240 -112 192
WIRE 16 240 16 192
WIRE 800 240 736 240
WIRE 672 256 640 256
WIRE 112 288 112 144
WIRE 432 288 432 272
WIRE 432 288 112 288
WIRE 528 288 432 288
WIRE 640 288 640 256
WIRE 640 288 608 288
WIRE 432 304 432 288
WIRE 640 352 640 288
WIRE 656 352 640 352
WIRE 800 352 800 240
WIRE 800 352 736 352
WIRE 432 432 432 384
FLAG -112 240 0
FLAG 176 208 0
FLAG 432 432 0
FLAG 16 240 0
FLAG 800 96 0
FLAG 704 208 0
FLAG 176 -32 vc
FLAG 704 272 vc
SYMBOL OpAmps\\TL081 176 64 R0
SYMATTR InstName U1
SYMBOL pnp 368 176 M180
SYMATTR InstName Q1
SYMATTR Value TIP42C
SYMBOL res 352 112 R90
WINDOW 0 0 56 VBottom 2
WINDOW 3 32 56 VTop 2
SYMATTR InstName R1
SYMATTR Value 470
SYMBOL voltage -112 96 R0
WINDOW 123 0 0 Left 0
WINDOW 39 0 0 Left 0
SYMATTR InstName V1
SYMATTR Value 6
SYMBOL res 416 176 R0
SYMATTR InstName R2
SYMATTR Value 0.5
SYMBOL res 416 288 R0
SYMATTR InstName R3
SYMATTR Value 7.5
SYMBOL voltage 16 96 R0
WINDOW 123 0 0 Left 0
WINDOW 39 0 0 Left 0
SYMATTR InstName V2
SYMATTR Value 3.75
SYMBOL res 624 176 R90
WINDOW 0 0 56 VBottom 2
WINDOW 3 32 56 VTop 2
SYMATTR InstName R4
SYMATTR Value 1k
SYMBOL res 624 272 R90
WINDOW 0 0 56 VBottom 2
WINDOW 3 32 56 VTop 2
SYMATTR InstName R5
SYMATTR Value 1k
SYMBOL OpAmps\\TL081 704 304 M180
SYMATTR InstName U2
SYMBOL res 752 336 R90
WINDOW 0 0 56 VBottom 2
WINDOW 3 32 56 VTop 2
SYMATTR InstName R6
SYMATTR Value 10k
SYMBOL res 768 80 R90
WINDOW 0 0 56 VBottom 2
WINDOW 3 32 56 VTop 2
SYMATTR InstName R7
SYMATTR Value 10k
TEXT -146 456 Left 2 !.tran 0.1
