Version 4
SHEET 1 880 680
WIRE 544 -96 352 -96
WIRE 352 32 352 -96
WIRE 448 32 352 32
WIRE 544 48 544 -96
WIRE 544 48 512 48
WIRE 576 48 544 48
WIRE 160 64 128 64
WIRE 192 64 160 64
WIRE 304 64 304 32
WIRE 304 64 272 64
WIRE 448 64 304 64
WIRE 160 80 160 64
WIRE 192 80 160 80
WIRE 192 112 192 80
WIRE 384 112 192 112
WIRE 48 144 48 64
WIRE 48 144 -32 144
WIRE 96 144 48 144
WIRE 240 144 176 144
WIRE -32 176 -32 144
WIRE 384 176 384 112
WIRE 432 176 384 176
WIRE 576 176 576 48
WIRE 576 176 496 176
WIRE 240 192 240 144
WIRE -32 288 -32 256
WIRE 240 288 240 256
FLAG 240 288 0
FLAG -32 288 0
FLAG 480 80 0
FLAG 480 -64 0
FLAG 304 -32 0
SYMBOL res 192 128 R90
WINDOW 0 0 56 VBottom 2
WINDOW 3 32 56 VTop 2
SYMATTR InstName R1
SYMATTR Value 22k
SYMBOL cap 224 192 R0
SYMATTR InstName C1
SYMATTR Value 100n
SYMBOL voltage -32 160 R0
WINDOW 123 0 0 Left 0
WINDOW 39 0 0 Left 0
SYMATTR InstName V1
SYMATTR Value PULSE(0 5 0 1p 1p 25u 50u)
SYMBOL OpAmps\\TL081 480 -16 R0
SYMATTR InstName U1
SYMBOL voltage 480 32 R180
WINDOW 0 24 96 Left 2
WINDOW 3 24 16 Left 2
WINDOW 123 0 0 Left 0
WINDOW 39 0 0 Left 0
SYMATTR InstName V2
SYMATTR Value 10
SYMBOL cap 496 160 R90
WINDOW 0 0 32 VBottom 2
WINDOW 3 32 32 VTop 2
SYMATTR InstName C2
SYMATTR Value 100n
SYMBOL cap 320 32 R180
WINDOW 0 24 56 Left 2
WINDOW 3 24 8 Left 2
SYMATTR InstName C3
SYMATTR Value 100n
SYMBOL res 288 48 R90
WINDOW 0 0 56 VBottom 2
WINDOW 3 32 56 VTop 2
SYMATTR InstName R2
SYMATTR Value 12k
SYMBOL res 144 48 R90
WINDOW 0 0 56 VBottom 2
WINDOW 3 32 56 VTop 2
SYMATTR InstName R3
SYMATTR Value 5.28k
TEXT -66 312 Left 2 !.tran 0.1
