Version 4
SHEET 1 880 680
WIRE 224 -32 64 -32
WIRE 224 16 224 -32
WIRE -192 32 -192 16
WIRE -192 32 -256 32
WIRE -256 48 -256 32
WIRE -192 48 -192 32
WIRE 64 48 64 -32
WIRE 128 48 64 48
WIRE 224 64 224 16
WIRE 224 64 192 64
WIRE -64 80 -96 80
WIRE 64 80 16 80
WIRE 128 80 64 80
WIRE -96 128 -96 80
WIRE 64 128 64 80
WIRE -96 224 -96 208
WIRE 64 224 64 192
FLAG 64 224 0
FLAG -96 224 0
FLAG -256 48 0
FLAG -192 128 -7v
FLAG 160 96 -7v
FLAG -192 -64 7v
FLAG 160 32 7v
FLAG 224 16 DAC
SYMBOL voltage -96 112 R0
WINDOW 123 -291 126 Left 2
WINDOW 39 0 0 Left 0
WINDOW 3 -291 98 Left 2
SYMATTR InstName V1
SYMATTR Value PWL file=sine_pwm.txt
SYMBOL res 32 64 R90
WINDOW 0 0 56 VBottom 2
WINDOW 3 32 56 VTop 2
SYMATTR InstName R1
SYMATTR Value 22k
SYMBOL cap 48 128 R0
SYMATTR InstName C1
SYMATTR Value 100n
SYMBOL OpAmps\\TL081 160 0 R0
SYMATTR InstName U1
SYMBOL voltage -192 -80 R0
WINDOW 123 0 0 Left 0
WINDOW 39 0 0 Left 0
SYMATTR InstName V2
SYMATTR Value 12
SYMBOL voltage -192 32 R0
WINDOW 123 0 0 Left 0
WINDOW 39 0 0 Left 0
SYMATTR InstName V3
SYMATTR Value 12
TEXT -312 248 Left 2 !.tran 0 0.6 0
