Version 4
SHEET 1 936 680
WIRE 144 -192 48 -192
WIRE 240 -192 208 -192
WIRE 320 -192 240 -192
WIRE 416 -192 384 -192
WIRE 480 -192 416 -192
WIRE 576 -192 544 -192
WIRE 640 -192 576 -192
WIRE 736 -192 704 -192
WIRE 832 -192 736 -192
WIRE 48 -176 48 -192
WIRE 240 -176 240 -192
WIRE 416 -176 416 -192
WIRE 576 -176 576 -192
WIRE 736 -176 736 -192
WIRE 240 -96 240 -112
WIRE 576 -96 576 -112
WIRE 576 -96 240 -96
WIRE 736 -96 736 -112
WIRE 832 -96 832 -112
WIRE 48 -80 48 -96
WIRE 240 -80 240 -96
WIRE 416 -80 416 -112
WIRE 576 -80 576 -96
WIRE 240 32 240 0
WIRE 416 32 416 0
WIRE 144 128 48 128
WIRE 240 128 208 128
WIRE 320 128 240 128
WIRE 416 128 384 128
WIRE 480 128 416 128
WIRE 576 128 544 128
WIRE 640 128 576 128
WIRE 736 128 704 128
WIRE 832 128 736 128
WIRE 48 144 48 128
WIRE 240 144 240 128
WIRE 416 144 416 128
WIRE 576 144 576 128
WIRE 736 144 736 128
WIRE 736 224 736 208
WIRE 832 224 832 208
WIRE 48 240 48 224
WIRE 240 240 240 208
WIRE 416 240 416 208
WIRE 576 240 576 208
WIRE 240 352 240 320
WIRE 416 352 416 320
WIRE 576 352 576 320
FLAG 736 224 0
FLAG 240 352 0
FLAG 416 352 0
FLAG 576 352 0
FLAG 48 240 0
FLAG 736 -96 0
FLAG 240 32 0
FLAG 416 32 0
FLAG 48 -80 0
FLAG 832 -96 0
FLAG 832 224 0
SYMBOL diode 144 144 R270
WINDOW 0 32 32 VTop 2
WINDOW 3 0 32 VBottom 2
SYMATTR InstName D1
SYMATTR Value 1N4148
SYMBOL cap 224 144 R0
SYMATTR InstName C1
SYMATTR Value 1µ
SYMBOL diode 320 144 R270
WINDOW 0 32 32 VTop 2
WINDOW 3 0 32 VBottom 2
SYMATTR InstName D2
SYMATTR Value 1N4148
SYMBOL cap 400 144 R0
SYMATTR InstName C2
SYMATTR Value 1µ
SYMBOL diode 480 144 R270
WINDOW 0 32 32 VTop 2
WINDOW 3 0 32 VBottom 2
SYMATTR InstName D3
SYMATTR Value 1N4148
SYMBOL cap 560 144 R0
SYMATTR InstName C3
SYMATTR Value 1µ
SYMBOL diode 640 144 R270
WINDOW 0 32 32 VTop 2
WINDOW 3 0 32 VBottom 2
SYMATTR InstName D4
SYMATTR Value 1N4148
SYMBOL cap 720 144 R0
SYMATTR InstName C4
SYMATTR Value 1µ
SYMBOL voltage 240 224 R0
WINDOW 3 -321 103 Left 2
WINDOW 123 0 0 Left 0
WINDOW 39 0 0 Left 0
SYMATTR InstName V1
SYMATTR Value PULSE(0 5 0 1n 1n 2m 6m)
SYMBOL voltage 48 128 R0
WINDOW 123 0 0 Left 0
WINDOW 39 0 0 Left 0
SYMATTR InstName V4
SYMATTR Value 5
SYMBOL voltage 416 224 R0
WINDOW 3 -161 102 Left 2
WINDOW 123 0 0 Left 0
WINDOW 39 0 0 Left 0
SYMATTR InstName V2
SYMATTR Value PULSE(0 5 2m 1n 1n 2m 6m)
SYMBOL voltage 576 224 R0
WINDOW 123 0 0 Left 0
WINDOW 39 0 0 Left 0
SYMATTR InstName V3
SYMATTR Value PULSE(0 5 4m 1n 1n 2m 6m)
SYMBOL diode 144 -176 R270
WINDOW 0 32 32 VTop 2
WINDOW 3 0 32 VBottom 2
SYMATTR InstName D5
SYMATTR Value 1N4148
SYMBOL cap 224 -176 R0
SYMATTR InstName C5
SYMATTR Value 1µ
SYMBOL diode 320 -176 R270
WINDOW 0 32 32 VTop 2
WINDOW 3 0 32 VBottom 2
SYMATTR InstName D6
SYMATTR Value 1N4148
SYMBOL cap 400 -176 R0
SYMATTR InstName C6
SYMATTR Value 1µ
SYMBOL diode 480 -176 R270
WINDOW 0 32 32 VTop 2
WINDOW 3 0 32 VBottom 2
SYMATTR InstName D7
SYMATTR Value 1N4148
SYMBOL cap 560 -176 R0
SYMATTR InstName C7
SYMATTR Value 1µ
SYMBOL diode 640 -176 R270
WINDOW 0 32 32 VTop 2
WINDOW 3 0 32 VBottom 2
SYMATTR InstName D8
SYMATTR Value 1N4148
SYMBOL cap 720 -176 R0
SYMATTR InstName C8
SYMATTR Value 1µ
SYMBOL voltage 240 -96 R0
WINDOW 3 -321 103 Left 2
WINDOW 123 0 0 Left 0
WINDOW 39 0 0 Left 0
SYMATTR InstName V5
SYMATTR Value PULSE(0 5 0 1n 1n 3m 6m)
SYMBOL voltage 48 -192 R0
WINDOW 123 0 0 Left 0
WINDOW 39 0 0 Left 0
SYMATTR InstName V6
SYMATTR Value 5
SYMBOL voltage 416 -96 R0
WINDOW 3 -161 102 Left 2
WINDOW 123 0 0 Left 0
WINDOW 39 0 0 Left 0
SYMATTR InstName V7
SYMATTR Value PULSE(5 0 0 1n 1n 3m 6m)
SYMBOL res 816 -208 R0
SYMATTR InstName R1
SYMATTR Value 100
SYMBOL res 816 112 R0
SYMATTR InstName R2
SYMATTR Value 100
TEXT -82 376 Left 2 !.tran 1
