Version 4
SHEET 1 1076 680
WIRE 208 -16 32 -16
WIRE 336 -16 272 -16
WIRE 304 64 176 64
WIRE 176 128 176 64
WIRE 208 128 176 128
WIRE 304 144 304 64
WIRE 304 144 272 144
WIRE 336 144 336 -16
WIRE 336 144 304 144
WIRE -64 160 -144 160
WIRE 32 160 32 -16
WIRE 32 160 16 160
WIRE 48 160 32 160
WIRE 144 160 128 160
WIRE 208 160 144 160
WIRE -144 176 -144 160
WIRE 144 176 144 160
WIRE -320 192 -320 160
WIRE -320 192 -432 192
WIRE -320 208 -320 192
WIRE -432 224 -432 192
WIRE 144 272 144 240
WIRE -144 288 -144 256
FLAG -432 224 0
FLAG -320 80 7v
FLAG 240 112 7v
FLAG -320 288 -7v
FLAG 240 176 -7v
FLAG -144 288 0
FLAG 144 272 0
DATAFLAG -80 160 ""
SYMBOL OpAmps\\TL081 240 80 R0
SYMATTR InstName U1
SYMBOL voltage -320 64 R0
WINDOW 123 0 0 Left 0
WINDOW 39 0 0 Left 0
SYMATTR InstName V1
SYMATTR Value 7
SYMBOL voltage -320 192 R0
WINDOW 123 0 0 Left 0
WINDOW 39 0 0 Left 0
SYMATTR InstName V2
SYMATTR Value 7
SYMBOL cap 128 176 R0
SYMATTR InstName C1
SYMATTR Value 100n
SYMBOL res 144 144 R90
WINDOW 0 0 56 VBottom 2
WINDOW 3 32 56 VTop 2
SYMATTR InstName R1
SYMATTR Value 3.3k
SYMBOL res 32 144 R90
WINDOW 0 0 56 VBottom 2
WINDOW 3 32 56 VTop 2
SYMATTR InstName R2
SYMATTR Value 20k
SYMBOL cap 272 -32 R90
WINDOW 0 0 32 VBottom 2
WINDOW 3 32 32 VTop 2
SYMATTR InstName C2
SYMATTR Value 100n
SYMBOL voltage -144 160 R0
WINDOW 3 24 152 Left 2
WINDOW 123 24 124 Left 2
WINDOW 39 0 0 Left 0
SYMATTR Value PULSE(0 5 0 10n 10n 7u 14u)
SYMATTR Value2 AC 1
SYMATTR InstName V3
TEXT -456 376 Left 2 !.tran 0.1
TEXT -448 408 Left 2 !;ac dec 100 0.1 100k
TEXT 256 360 Left 2 !.include opamp.sub
